<routes>
    <vTypeDistribution id="mixed">
        <vType id="car" vClass="passenger" speedDev="0.2" latAlignment="center" probability="0.6"
               lcStrategic="1.0" lcCooperative="1.0" lcSpeedGain="1.0" lcKeepRight="1.0"
               lcLookaheadLeft="2.0" lcLookaheadRight="2.0" lcSpeedGainRight="0.1"
               lcPushy="0.0" lcPushyGap="0.0" lcAssertive="1.0" lcImpatience="0.0"
               lcTimeToImpatience="1.0" lcAccelLat="1.0" lcMaxSpeedLat="1.0"/>
        <vType id="moped" vClass="moped" speedDev="0.4" latAlignment="center" probability="0.4"
               lcStrategic="1.0" lcCooperative="1.0" lcSpeedGain="1.0" lcKeepRight="1.0"
               lcLookaheadLeft="2.0" lcLookaheadRight="2.0" lcSpeedGainRight="0.1"
               lcPushy="0.0" lcPushyGap="0.0" lcAssertive="1.0" lcImpatience="0.0"
               lcTimeToImpatience="1.0" lcAccelLat="1.0" lcMaxSpeedLat="1.0"/>
    </vTypeDistribution>
    <route id="r0" edges="W_in C_E"/>
    <route id="r1" edges="W_in C_S"/>
    <route id="r2" edges="W_in C_N"/>
    <route id="r3" edges="S_in C_N"/>
    <route id="r4" edges="S_in C_W"/>
    <route id="r5" edges="S_in C_E"/>
    <route id="r6" edges="E_in C_W"/>
    <route id="r7" edges="E_in C_S"/>
    <route id="r8" edges="E_in C_N"/>
    <route id="r9" edges="N_in C_S"/>
    <route id="r10" edges="N_in C_W"/>
    <route id="r11" edges="N_in C_E"/>
    <vehicle id="r7_0" type="mixed" route="r7" depart="34" departLane="1" departPos="0"/>
    <vehicle id="r0_1" type="mixed" route="r0" depart="35" departLane="0" departPos="0"/>
    <vehicle id="r3_2" type="mixed" route="r3" depart="37" departLane="0" departPos="0"/>
    <vehicle id="r2_3" type="mixed" route="r2" depart="40" departLane="2" departPos="0"/>
    <vehicle id="r9_4" type="mixed" route="r9" depart="41" departLane="0" departPos="0"/>
    <vehicle id="r8_5" type="mixed" route="r8" depart="48" departLane="2" departPos="0"/>
    <vehicle id="r10_6" type="mixed" route="r10" depart="52" departLane="1" departPos="0"/>
    <vehicle id="r0_7" type="mixed" route="r0" depart="52" departLane="0" departPos="0"/>
    <vehicle id="r5_8" type="mixed" route="r5" depart="53" departLane="2" departPos="0"/>
    <vehicle id="r0_9" type="mixed" route="r0" depart="55" departLane="0" departPos="0"/>
    <vehicle id="r2_10" type="mixed" route="r2" depart="57" departLane="2" departPos="0"/>
    <vehicle id="r6_11" type="mixed" route="r6" depart="57" departLane="0" departPos="0"/>
    <vehicle id="r0_12" type="mixed" route="r0" depart="60" departLane="0" departPos="0"/>
    <vehicle id="r2_13" type="mixed" route="r2" depart="60" departLane="2" departPos="0"/>
    <vehicle id="r7_14" type="mixed" route="r7" depart="62" departLane="1" departPos="0"/>
    <vehicle id="r6_15" type="mixed" route="r6" depart="64" departLane="0" departPos="0"/>
    <vehicle id="r2_16" type="mixed" route="r2" depart="67" departLane="2" departPos="0"/>
    <vehicle id="r7_17" type="mixed" route="r7" depart="67" departLane="1" departPos="0"/>
    <vehicle id="r9_18" type="mixed" route="r9" depart="67" departLane="0" departPos="0"/>
    <vehicle id="r0_19" type="mixed" route="r0" depart="68" departLane="0" departPos="0"/>
    <vehicle id="r9_20" type="mixed" route="r9" depart="70" departLane="0" departPos="0"/>
    <vehicle id="r8_21" type="mixed" route="r8" depart="71" departLane="2" departPos="0"/>
    <vehicle id="r4_22" type="mixed" route="r4" depart="72" departLane="1" departPos="0"/>
    <vehicle id="r1_23" type="mixed" route="r1" depart="73" departLane="1" departPos="0"/>
    <vehicle id="r11_24" type="mixed" route="r11" depart="75" departLane="2" departPos="0"/>
    <vehicle id="r4_25" type="mixed" route="r4" depart="76" departLane="1" departPos="0"/>
    <vehicle id="r0_26" type="mixed" route="r0" depart="78" departLane="0" departPos="0"/>
    <vehicle id="r1_27" type="mixed" route="r1" depart="78" departLane="1" departPos="0"/>
    <vehicle id="r10_28" type="mixed" route="r10" depart="80" departLane="1" departPos="0"/>
    <vehicle id="r7_29" type="mixed" route="r7" depart="80" departLane="1" departPos="0"/>
    <vehicle id="r9_30" type="mixed" route="r9" depart="80" departLane="0" departPos="0"/>
    <vehicle id="r8_31" type="mixed" route="r8" depart="81" departLane="2" departPos="0"/>
    <vehicle id="r6_32" type="mixed" route="r6" depart="81" departLane="0" departPos="0"/>
    <vehicle id="r11_33" type="mixed" route="r11" depart="81" departLane="2" departPos="0"/>
    <vehicle id="r4_34" type="mixed" route="r4" depart="82" departLane="1" departPos="0"/>
    <vehicle id="r6_35" type="mixed" route="r6" depart="85" departLane="0" departPos="0"/>
    <vehicle id="r9_36" type="mixed" route="r9" depart="86" departLane="0" departPos="0"/>
    <vehicle id="r7_37" type="mixed" route="r7" depart="87" departLane="1" departPos="0"/>
    <vehicle id="r10_38" type="mixed" route="r10" depart="88" departLane="1" departPos="0"/>
    <vehicle id="r7_39" type="mixed" route="r7" depart="89" departLane="1" departPos="0"/>
    <vehicle id="r8_40" type="mixed" route="r8" depart="92" departLane="2" departPos="0"/>
    <vehicle id="r0_41" type="mixed" route="r0" depart="92" departLane="0" departPos="0"/>
    <vehicle id="r2_42" type="mixed" route="r2" depart="93" departLane="2" departPos="0"/>
    <vehicle id="r3_43" type="mixed" route="r3" depart="95" departLane="0" departPos="0"/>
    <vehicle id="r0_44" type="mixed" route="r0" depart="96" departLane="0" departPos="0"/>
    <vehicle id="r3_45" type="mixed" route="r3" depart="96" departLane="0" departPos="0"/>
    <vehicle id="r1_46" type="mixed" route="r1" depart="96" departLane="1" departPos="0"/>
    <vehicle id="r3_47" type="mixed" route="r3" depart="97" departLane="0" departPos="0"/>
    <vehicle id="r7_48" type="mixed" route="r7" depart="97" departLane="1" departPos="0"/>
    <vehicle id="r4_49" type="mixed" route="r4" depart="100" departLane="1" departPos="0"/>
    <vehicle id="r4_50" type="mixed" route="r4" depart="100" departLane="1" departPos="0"/>
    <vehicle id="r2_51" type="mixed" route="r2" depart="101" departLane="2" departPos="0"/>
    <vehicle id="r3_52" type="mixed" route="r3" depart="102" departLane="0" departPos="0"/>
    <vehicle id="r11_53" type="mixed" route="r11" depart="102" departLane="2" departPos="0"/>
    <vehicle id="r7_54" type="mixed" route="r7" depart="103" departLane="1" departPos="0"/>
    <vehicle id="r7_55" type="mixed" route="r7" depart="105" departLane="1" departPos="0"/>
    <vehicle id="r2_56" type="mixed" route="r2" depart="107" departLane="2" departPos="0"/>
    <vehicle id="r8_57" type="mixed" route="r8" depart="107" departLane="2" departPos="0"/>
    <vehicle id="r2_58" type="mixed" route="r2" depart="107" departLane="2" departPos="0"/>
    <vehicle id="r4_59" type="mixed" route="r4" depart="107" departLane="1" departPos="0"/>
    <vehicle id="r11_60" type="mixed" route="r11" depart="108" departLane="2" departPos="0"/>
    <vehicle id="r7_61" type="mixed" route="r7" depart="108" departLane="1" departPos="0"/>
    <vehicle id="r6_62" type="mixed" route="r6" depart="109" departLane="0" departPos="0"/>
    <vehicle id="r8_63" type="mixed" route="r8" depart="109" departLane="2" departPos="0"/>
    <vehicle id="r10_64" type="mixed" route="r10" depart="114" departLane="1" departPos="0"/>
    <vehicle id="r9_65" type="mixed" route="r9" depart="114" departLane="0" departPos="0"/>
    <vehicle id="r2_66" type="mixed" route="r2" depart="115" departLane="2" departPos="0"/>
    <vehicle id="r0_67" type="mixed" route="r0" depart="115" departLane="0" departPos="0"/>
    <vehicle id="r4_68" type="mixed" route="r4" depart="118" departLane="1" departPos="0"/>
    <vehicle id="r3_69" type="mixed" route="r3" depart="120" departLane="0" departPos="0"/>
    <vehicle id="r2_70" type="mixed" route="r2" depart="120" departLane="2" departPos="0"/>
    <vehicle id="r11_71" type="mixed" route="r11" depart="121" departLane="2" departPos="0"/>
    <vehicle id="r10_72" type="mixed" route="r10" depart="122" departLane="1" departPos="0"/>
    <vehicle id="r4_73" type="mixed" route="r4" depart="122" departLane="1" departPos="0"/>
    <vehicle id="r7_74" type="mixed" route="r7" depart="125" departLane="1" departPos="0"/>
    <vehicle id="r5_75" type="mixed" route="r5" depart="127" departLane="2" departPos="0"/>
    <vehicle id="r10_76" type="mixed" route="r10" depart="128" departLane="1" departPos="0"/>
    <vehicle id="r5_77" type="mixed" route="r5" depart="129" departLane="2" departPos="0"/>
    <vehicle id="r3_78" type="mixed" route="r3" depart="129" departLane="0" departPos="0"/>
    <vehicle id="r3_79" type="mixed" route="r3" depart="130" departLane="0" departPos="0"/>
    <vehicle id="r6_80" type="mixed" route="r6" depart="131" departLane="0" departPos="0"/>
    <vehicle id="r3_81" type="mixed" route="r3" depart="131" departLane="0" departPos="0"/>
    <vehicle id="r7_82" type="mixed" route="r7" depart="132" departLane="1" departPos="0"/>
    <vehicle id="r10_83" type="mixed" route="r10" depart="132" departLane="1" departPos="0"/>
    <vehicle id="r5_84" type="mixed" route="r5" depart="134" departLane="2" departPos="0"/>
    <vehicle id="r2_85" type="mixed" route="r2" depart="135" departLane="2" departPos="0"/>
    <vehicle id="r11_86" type="mixed" route="r11" depart="135" departLane="2" departPos="0"/>
    <vehicle id="r6_87" type="mixed" route="r6" depart="137" departLane="0" departPos="0"/>
    <vehicle id="r0_88" type="mixed" route="r0" depart="138" departLane="0" departPos="0"/>
    <vehicle id="r0_89" type="mixed" route="r0" depart="138" departLane="0" departPos="0"/>
    <vehicle id="r1_90" type="mixed" route="r1" depart="139" departLane="1" departPos="0"/>
    <vehicle id="r7_91" type="mixed" route="r7" depart="139" departLane="1" departPos="0"/>
    <vehicle id="r9_92" type="mixed" route="r9" depart="140" departLane="0" departPos="0"/>
    <vehicle id="r5_93" type="mixed" route="r5" depart="140" departLane="2" departPos="0"/>
    <vehicle id="r0_94" type="mixed" route="r0" depart="141" departLane="0" departPos="0"/>
    <vehicle id="r4_95" type="mixed" route="r4" depart="141" departLane="1" departPos="0"/>
    <vehicle id="r11_96" type="mixed" route="r11" depart="142" departLane="2" departPos="0"/>
    <vehicle id="r6_97" type="mixed" route="r6" depart="142" departLane="0" departPos="0"/>
    <vehicle id="r11_98" type="mixed" route="r11" depart="144" departLane="2" departPos="0"/>
    <vehicle id="r10_99" type="mixed" route="r10" depart="145" departLane="1" departPos="0"/>
    <vehicle id="r0_100" type="mixed" route="r0" depart="145" departLane="0" departPos="0"/>
    <vehicle id="r8_101" type="mixed" route="r8" depart="146" departLane="2" departPos="0"/>
    <vehicle id="r8_102" type="mixed" route="r8" depart="146" departLane="2" departPos="0"/>
    <vehicle id="r6_103" type="mixed" route="r6" depart="147" departLane="0" departPos="0"/>
    <vehicle id="r3_104" type="mixed" route="r3" depart="148" departLane="0" departPos="0"/>
    <vehicle id="r7_105" type="mixed" route="r7" depart="148" departLane="1" departPos="0"/>
    <vehicle id="r1_106" type="mixed" route="r1" depart="148" departLane="1" departPos="0"/>
    <vehicle id="r5_107" type="mixed" route="r5" depart="149" departLane="2" departPos="0"/>
    <vehicle id="r5_108" type="mixed" route="r5" depart="149" departLane="2" departPos="0"/>
    <vehicle id="r11_109" type="mixed" route="r11" depart="149" departLane="2" departPos="0"/>
    <vehicle id="r10_110" type="mixed" route="r10" depart="150" departLane="1" departPos="0"/>
    <vehicle id="r3_111" type="mixed" route="r3" depart="150" departLane="0" departPos="0"/>
    <vehicle id="r6_112" type="mixed" route="r6" depart="152" departLane="0" departPos="0"/>
    <vehicle id="r2_113" type="mixed" route="r2" depart="152" departLane="2" departPos="0"/>
    <vehicle id="r10_114" type="mixed" route="r10" depart="153" departLane="1" departPos="0"/>
    <vehicle id="r10_115" type="mixed" route="r10" depart="153" departLane="1" departPos="0"/>
    <vehicle id="r3_116" type="mixed" route="r3" depart="154" departLane="0" departPos="0"/>
    <vehicle id="r7_117" type="mixed" route="r7" depart="154" departLane="1" departPos="0"/>
    <vehicle id="r7_118" type="mixed" route="r7" depart="154" departLane="1" departPos="0"/>
    <vehicle id="r1_119" type="mixed" route="r1" depart="154" departLane="1" departPos="0"/>
    <vehicle id="r9_120" type="mixed" route="r9" depart="156" departLane="0" departPos="0"/>
    <vehicle id="r6_121" type="mixed" route="r6" depart="156" departLane="0" departPos="0"/>
    <vehicle id="r9_122" type="mixed" route="r9" depart="157" departLane="0" departPos="0"/>
    <vehicle id="r6_123" type="mixed" route="r6" depart="157" departLane="0" departPos="0"/>
    <vehicle id="r0_124" type="mixed" route="r0" depart="159" departLane="0" departPos="0"/>
    <vehicle id="r4_125" type="mixed" route="r4" depart="160" departLane="1" departPos="0"/>
    <vehicle id="r0_126" type="mixed" route="r0" depart="160" departLane="0" departPos="0"/>
    <vehicle id="r11_127" type="mixed" route="r11" depart="161" departLane="2" departPos="0"/>
    <vehicle id="r10_128" type="mixed" route="r10" depart="162" departLane="1" departPos="0"/>
    <vehicle id="r9_129" type="mixed" route="r9" depart="163" departLane="0" departPos="0"/>
    <vehicle id="r3_130" type="mixed" route="r3" depart="163" departLane="0" departPos="0"/>
    <vehicle id="r0_131" type="mixed" route="r0" depart="163" departLane="0" departPos="0"/>
    <vehicle id="r10_132" type="mixed" route="r10" depart="164" departLane="1" departPos="0"/>
    <vehicle id="r11_133" type="mixed" route="r11" depart="164" departLane="2" departPos="0"/>
    <vehicle id="r0_134" type="mixed" route="r0" depart="165" departLane="0" departPos="0"/>
    <vehicle id="r6_135" type="mixed" route="r6" depart="167" departLane="0" departPos="0"/>
    <vehicle id="r0_136" type="mixed" route="r0" depart="168" departLane="0" departPos="0"/>
    <vehicle id="r9_137" type="mixed" route="r9" depart="168" departLane="0" departPos="0"/>
    <vehicle id="r9_138" type="mixed" route="r9" depart="168" departLane="0" departPos="0"/>
    <vehicle id="r1_139" type="mixed" route="r1" depart="170" departLane="1" departPos="0"/>
    <vehicle id="r5_140" type="mixed" route="r5" depart="171" departLane="2" departPos="0"/>
    <vehicle id="r6_141" type="mixed" route="r6" depart="171" departLane="0" departPos="0"/>
    <vehicle id="r3_142" type="mixed" route="r3" depart="171" departLane="0" departPos="0"/>
    <vehicle id="r10_143" type="mixed" route="r10" depart="172" departLane="1" departPos="0"/>
    <vehicle id="r5_144" type="mixed" route="r5" depart="173" departLane="2" departPos="0"/>
    <vehicle id="r2_145" type="mixed" route="r2" depart="173" departLane="2" departPos="0"/>
    <vehicle id="r6_146" type="mixed" route="r6" depart="173" departLane="0" departPos="0"/>
    <vehicle id="r8_147" type="mixed" route="r8" depart="174" departLane="2" departPos="0"/>
    <vehicle id="r2_148" type="mixed" route="r2" depart="175" departLane="2" departPos="0"/>
    <vehicle id="r4_149" type="mixed" route="r4" depart="175" departLane="1" departPos="0"/>
    <vehicle id="r11_150" type="mixed" route="r11" depart="176" departLane="2" departPos="0"/>
    <vehicle id="r7_151" type="mixed" route="r7" depart="176" departLane="1" departPos="0"/>
    <vehicle id="r5_152" type="mixed" route="r5" depart="176" departLane="2" departPos="0"/>
    <vehicle id="r6_153" type="mixed" route="r6" depart="176" departLane="0" departPos="0"/>
    <vehicle id="r1_154" type="mixed" route="r1" depart="177" departLane="1" departPos="0"/>
    <vehicle id="r2_155" type="mixed" route="r2" depart="177" departLane="2" departPos="0"/>
    <vehicle id="r4_156" type="mixed" route="r4" depart="178" departLane="1" departPos="0"/>
    <vehicle id="r7_157" type="mixed" route="r7" depart="178" departLane="1" departPos="0"/>
    <vehicle id="r3_158" type="mixed" route="r3" depart="178" departLane="0" departPos="0"/>
    <vehicle id="r2_159" type="mixed" route="r2" depart="179" departLane="2" departPos="0"/>
    <vehicle id="r0_160" type="mixed" route="r0" depart="179" departLane="0" departPos="0"/>
    <vehicle id="r7_161" type="mixed" route="r7" depart="180" departLane="1" departPos="0"/>
    <vehicle id="r2_162" type="mixed" route="r2" depart="182" departLane="2" departPos="0"/>
    <vehicle id="r10_163" type="mixed" route="r10" depart="182" departLane="1" departPos="0"/>
    <vehicle id="r10_164" type="mixed" route="r10" depart="184" departLane="1" departPos="0"/>
    <vehicle id="r0_165" type="mixed" route="r0" depart="184" departLane="0" departPos="0"/>
    <vehicle id="r3_166" type="mixed" route="r3" depart="184" departLane="0" departPos="0"/>
    <vehicle id="r8_167" type="mixed" route="r8" depart="185" departLane="2" departPos="0"/>
    <vehicle id="r2_168" type="mixed" route="r2" depart="185" departLane="2" departPos="0"/>
    <vehicle id="r1_169" type="mixed" route="r1" depart="185" departLane="1" departPos="0"/>
    <vehicle id="r11_170" type="mixed" route="r11" depart="185" departLane="2" departPos="0"/>
    <vehicle id="r6_171" type="mixed" route="r6" depart="186" departLane="0" departPos="0"/>
    <vehicle id="r5_172" type="mixed" route="r5" depart="186" departLane="2" departPos="0"/>
    <vehicle id="r9_173" type="mixed" route="r9" depart="189" departLane="0" departPos="0"/>
    <vehicle id="r9_174" type="mixed" route="r9" depart="189" departLane="0" departPos="0"/>
    <vehicle id="r2_175" type="mixed" route="r2" depart="191" departLane="2" departPos="0"/>
    <vehicle id="r1_176" type="mixed" route="r1" depart="191" departLane="1" departPos="0"/>
    <vehicle id="r5_177" type="mixed" route="r5" depart="191" departLane="2" departPos="0"/>
    <vehicle id="r5_178" type="mixed" route="r5" depart="192" departLane="2" departPos="0"/>
    <vehicle id="r5_179" type="mixed" route="r5" depart="193" departLane="2" departPos="0"/>
    <vehicle id="r8_180" type="mixed" route="r8" depart="193" departLane="2" departPos="0"/>
    <vehicle id="r8_181" type="mixed" route="r8" depart="193" departLane="2" departPos="0"/>
    <vehicle id="r11_182" type="mixed" route="r11" depart="193" departLane="2" departPos="0"/>
    <vehicle id="r1_183" type="mixed" route="r1" depart="194" departLane="1" departPos="0"/>
    <vehicle id="r5_184" type="mixed" route="r5" depart="194" departLane="2" departPos="0"/>
    <vehicle id="r4_185" type="mixed" route="r4" depart="194" departLane="1" departPos="0"/>
    <vehicle id="r10_186" type="mixed" route="r10" depart="194" departLane="1" departPos="0"/>
    <vehicle id="r3_187" type="mixed" route="r3" depart="194" departLane="0" departPos="0"/>
    <vehicle id="r2_188" type="mixed" route="r2" depart="196" departLane="2" departPos="0"/>
    <vehicle id="r5_189" type="mixed" route="r5" depart="197" departLane="2" departPos="0"/>
    <vehicle id="r5_190" type="mixed" route="r5" depart="199" departLane="2" departPos="0"/>
    <vehicle id="r3_191" type="mixed" route="r3" depart="200" departLane="0" departPos="0"/>
    <vehicle id="r3_192" type="mixed" route="r3" depart="201" departLane="0" departPos="0"/>
    <vehicle id="r11_193" type="mixed" route="r11" depart="201" departLane="2" departPos="0"/>
    <vehicle id="r5_194" type="mixed" route="r5" depart="202" departLane="2" departPos="0"/>
    <vehicle id="r10_195" type="mixed" route="r10" depart="202" departLane="1" departPos="0"/>
    <vehicle id="r6_196" type="mixed" route="r6" depart="203" departLane="0" departPos="0"/>
    <vehicle id="r0_197" type="mixed" route="r0" depart="203" departLane="0" departPos="0"/>
    <vehicle id="r11_198" type="mixed" route="r11" depart="204" departLane="2" departPos="0"/>
    <vehicle id="r10_199" type="mixed" route="r10" depart="204" departLane="1" departPos="0"/>
    <vehicle id="r11_200" type="mixed" route="r11" depart="204" departLane="2" departPos="0"/>
    <vehicle id="r11_201" type="mixed" route="r11" depart="205" departLane="2" departPos="0"/>
    <vehicle id="r10_202" type="mixed" route="r10" depart="205" departLane="1" departPos="0"/>
    <vehicle id="r2_203" type="mixed" route="r2" depart="205" departLane="2" departPos="0"/>
    <vehicle id="r6_204" type="mixed" route="r6" depart="206" departLane="0" departPos="0"/>
    <vehicle id="r2_205" type="mixed" route="r2" depart="206" departLane="2" departPos="0"/>
    <vehicle id="r5_206" type="mixed" route="r5" depart="207" departLane="2" departPos="0"/>
    <vehicle id="r0_207" type="mixed" route="r0" depart="209" departLane="0" departPos="0"/>
    <vehicle id="r4_208" type="mixed" route="r4" depart="209" departLane="1" departPos="0"/>
    <vehicle id="r11_209" type="mixed" route="r11" depart="209" departLane="2" departPos="0"/>
    <vehicle id="r3_210" type="mixed" route="r3" depart="209" departLane="0" departPos="0"/>
    <vehicle id="r9_211" type="mixed" route="r9" depart="209" departLane="0" departPos="0"/>
    <vehicle id="r5_212" type="mixed" route="r5" depart="210" departLane="2" departPos="0"/>
    <vehicle id="r5_213" type="mixed" route="r5" depart="210" departLane="2" departPos="0"/>
    <vehicle id="r11_214" type="mixed" route="r11" depart="211" departLane="2" departPos="0"/>
    <vehicle id="r11_215" type="mixed" route="r11" depart="211" departLane="2" departPos="0"/>
    <vehicle id="r6_216" type="mixed" route="r6" depart="213" departLane="0" departPos="0"/>
    <vehicle id="r8_217" type="mixed" route="r8" depart="213" departLane="2" departPos="0"/>
    <vehicle id="r1_218" type="mixed" route="r1" depart="215" departLane="1" departPos="0"/>
    <vehicle id="r3_219" type="mixed" route="r3" depart="215" departLane="0" departPos="0"/>
    <vehicle id="r11_220" type="mixed" route="r11" depart="216" departLane="2" departPos="0"/>
    <vehicle id="r7_221" type="mixed" route="r7" depart="216" departLane="1" departPos="0"/>
    <vehicle id="r6_222" type="mixed" route="r6" depart="216" departLane="0" departPos="0"/>
    <vehicle id="r9_223" type="mixed" route="r9" depart="217" departLane="0" departPos="0"/>
    <vehicle id="r0_224" type="mixed" route="r0" depart="218" departLane="0" departPos="0"/>
    <vehicle id="r7_225" type="mixed" route="r7" depart="218" departLane="1" departPos="0"/>
    <vehicle id="r6_226" type="mixed" route="r6" depart="218" departLane="0" departPos="0"/>
    <vehicle id="r10_227" type="mixed" route="r10" depart="218" departLane="1" departPos="0"/>
    <vehicle id="r1_228" type="mixed" route="r1" depart="218" departLane="1" departPos="0"/>
    <vehicle id="r11_229" type="mixed" route="r11" depart="219" departLane="2" departPos="0"/>
    <vehicle id="r0_230" type="mixed" route="r0" depart="220" departLane="0" departPos="0"/>
    <vehicle id="r2_231" type="mixed" route="r2" depart="220" departLane="2" departPos="0"/>
    <vehicle id="r7_232" type="mixed" route="r7" depart="220" departLane="1" departPos="0"/>
    <vehicle id="r8_233" type="mixed" route="r8" depart="220" departLane="2" departPos="0"/>
    <vehicle id="r3_234" type="mixed" route="r3" depart="220" departLane="0" departPos="0"/>
    <vehicle id="r1_235" type="mixed" route="r1" depart="221" departLane="1" departPos="0"/>
    <vehicle id="r10_236" type="mixed" route="r10" depart="221" departLane="1" departPos="0"/>
    <vehicle id="r3_237" type="mixed" route="r3" depart="223" departLane="0" departPos="0"/>
    <vehicle id="r7_238" type="mixed" route="r7" depart="223" departLane="1" departPos="0"/>
    <vehicle id="r7_239" type="mixed" route="r7" depart="223" departLane="1" departPos="0"/>
    <vehicle id="r5_240" type="mixed" route="r5" depart="223" departLane="2" departPos="0"/>
    <vehicle id="r7_241" type="mixed" route="r7" depart="223" departLane="1" departPos="0"/>
    <vehicle id="r6_242" type="mixed" route="r6" depart="224" departLane="0" departPos="0"/>
    <vehicle id="r11_243" type="mixed" route="r11" depart="224" departLane="2" departPos="0"/>
    <vehicle id="r2_244" type="mixed" route="r2" depart="225" departLane="2" departPos="0"/>
    <vehicle id="r8_245" type="mixed" route="r8" depart="225" departLane="2" departPos="0"/>
    <vehicle id="r3_246" type="mixed" route="r3" depart="226" departLane="0" departPos="0"/>
    <vehicle id="r5_247" type="mixed" route="r5" depart="226" departLane="2" departPos="0"/>
    <vehicle id="r8_248" type="mixed" route="r8" depart="227" departLane="2" departPos="0"/>
    <vehicle id="r3_249" type="mixed" route="r3" depart="227" departLane="0" departPos="0"/>
    <vehicle id="r4_250" type="mixed" route="r4" depart="227" departLane="1" departPos="0"/>
    <vehicle id="r9_251" type="mixed" route="r9" depart="227" departLane="0" departPos="0"/>
    <vehicle id="r0_252" type="mixed" route="r0" depart="227" departLane="0" departPos="0"/>
    <vehicle id="r5_253" type="mixed" route="r5" depart="228" departLane="2" departPos="0"/>
    <vehicle id="r11_254" type="mixed" route="r11" depart="229" departLane="2" departPos="0"/>
    <vehicle id="r11_255" type="mixed" route="r11" depart="231" departLane="2" departPos="0"/>
    <vehicle id="r0_256" type="mixed" route="r0" depart="233" departLane="0" departPos="0"/>
    <vehicle id="r2_257" type="mixed" route="r2" depart="233" departLane="2" departPos="0"/>
    <vehicle id="r3_258" type="mixed" route="r3" depart="233" departLane="0" departPos="0"/>
    <vehicle id="r11_259" type="mixed" route="r11" depart="235" departLane="2" departPos="0"/>
    <vehicle id="r10_260" type="mixed" route="r10" depart="235" departLane="1" departPos="0"/>
    <vehicle id="r10_261" type="mixed" route="r10" depart="237" departLane="1" departPos="0"/>
    <vehicle id="r4_262" type="mixed" route="r4" depart="239" departLane="1" departPos="0"/>
    <vehicle id="r1_263" type="mixed" route="r1" depart="239" departLane="1" departPos="0"/>
    <vehicle id="r9_264" type="mixed" route="r9" depart="240" departLane="0" departPos="0"/>
    <vehicle id="r8_265" type="mixed" route="r8" depart="240" departLane="2" departPos="0"/>
    <vehicle id="r7_266" type="mixed" route="r7" depart="241" departLane="1" departPos="0"/>
    <vehicle id="r11_267" type="mixed" route="r11" depart="242" departLane="2" departPos="0"/>
    <vehicle id="r7_268" type="mixed" route="r7" depart="242" departLane="1" departPos="0"/>
    <vehicle id="r0_269" type="mixed" route="r0" depart="243" departLane="0" departPos="0"/>
    <vehicle id="r9_270" type="mixed" route="r9" depart="244" departLane="0" departPos="0"/>
    <vehicle id="r3_271" type="mixed" route="r3" depart="244" departLane="0" departPos="0"/>
    <vehicle id="r8_272" type="mixed" route="r8" depart="245" departLane="2" departPos="0"/>
    <vehicle id="r11_273" type="mixed" route="r11" depart="246" departLane="2" departPos="0"/>
    <vehicle id="r1_274" type="mixed" route="r1" depart="248" departLane="1" departPos="0"/>
    <vehicle id="r1_275" type="mixed" route="r1" depart="249" departLane="1" departPos="0"/>
    <vehicle id="r1_276" type="mixed" route="r1" depart="249" departLane="1" departPos="0"/>
    <vehicle id="r6_277" type="mixed" route="r6" depart="250" departLane="0" departPos="0"/>
    <vehicle id="r3_278" type="mixed" route="r3" depart="250" departLane="0" departPos="0"/>
    <vehicle id="r7_279" type="mixed" route="r7" depart="250" departLane="1" departPos="0"/>
    <vehicle id="r8_280" type="mixed" route="r8" depart="251" departLane="2" departPos="0"/>
    <vehicle id="r2_281" type="mixed" route="r2" depart="251" departLane="2" departPos="0"/>
    <vehicle id="r7_282" type="mixed" route="r7" depart="251" departLane="1" departPos="0"/>
    <vehicle id="r3_283" type="mixed" route="r3" depart="252" departLane="0" departPos="0"/>
    <vehicle id="r6_284" type="mixed" route="r6" depart="252" departLane="0" departPos="0"/>
    <vehicle id="r10_285" type="mixed" route="r10" depart="253" departLane="1" departPos="0"/>
    <vehicle id="r10_286" type="mixed" route="r10" depart="254" departLane="1" departPos="0"/>
    <vehicle id="r0_287" type="mixed" route="r0" depart="254" departLane="0" departPos="0"/>
    <vehicle id="r5_288" type="mixed" route="r5" depart="254" departLane="2" departPos="0"/>
    <vehicle id="r3_289" type="mixed" route="r3" depart="255" departLane="0" departPos="0"/>
    <vehicle id="r0_290" type="mixed" route="r0" depart="255" departLane="0" departPos="0"/>
    <vehicle id="r9_291" type="mixed" route="r9" depart="256" departLane="0" departPos="0"/>
    <vehicle id="r7_292" type="mixed" route="r7" depart="256" departLane="1" departPos="0"/>
    <vehicle id="r3_293" type="mixed" route="r3" depart="256" departLane="0" departPos="0"/>
    <vehicle id="r9_294" type="mixed" route="r9" depart="257" departLane="0" departPos="0"/>
    <vehicle id="r6_295" type="mixed" route="r6" depart="257" departLane="0" departPos="0"/>
    <vehicle id="r5_296" type="mixed" route="r5" depart="257" departLane="2" departPos="0"/>
    <vehicle id="r0_297" type="mixed" route="r0" depart="260" departLane="0" departPos="0"/>
    <vehicle id="r0_298" type="mixed" route="r0" depart="260" departLane="0" departPos="0"/>
    <vehicle id="r10_299" type="mixed" route="r10" depart="260" departLane="1" departPos="0"/>
    <vehicle id="r10_300" type="mixed" route="r10" depart="260" departLane="1" departPos="0"/>
    <vehicle id="r6_301" type="mixed" route="r6" depart="261" departLane="0" departPos="0"/>
    <vehicle id="r9_302" type="mixed" route="r9" depart="261" departLane="0" departPos="0"/>
    <vehicle id="r7_303" type="mixed" route="r7" depart="262" departLane="1" departPos="0"/>
    <vehicle id="r1_304" type="mixed" route="r1" depart="263" departLane="1" departPos="0"/>
    <vehicle id="r1_305" type="mixed" route="r1" depart="263" departLane="1" departPos="0"/>
    <vehicle id="r4_306" type="mixed" route="r4" depart="263" departLane="1" departPos="0"/>
    <vehicle id="r10_307" type="mixed" route="r10" depart="263" departLane="1" departPos="0"/>