<routes>
    <vTypeDistribution id="mixed">
        <vType id="car" vClass="passenger" speedDev="0.2" latAlignment="compact" probability="0.6"/>
        <vType id="moped" vClass="moped" speedDev="0.4" latAlignment="compact" probability="0.4"/>
    </vTypeDistribution>
    <route id="r0" edges="W_in C_E"/>
    <route id="r1" edges="W_in C_S"/>
    <route id="r2" edges="W_in C_N"/>
    <route id="r3" edges="S_in C_N"/>
    <route id="r4" edges="S_in C_W"/>
    <route id="r5" edges="S_in C_E"/>
    <route id="r6" edges="E_in C_W"/>
    <route id="r7" edges="E_in C_S"/>
    <route id="r8" edges="E_in C_N"/>
    <route id="r9" edges="N_in C_S"/>
    <route id="r10" edges="N_in C_W"/>
    <route id="r11" edges="N_in C_E"/>
    <vehicle id="r9_0" type="mixed" route="r9" depart="34" departPosLat="random"/>
    <vehicle id="r8_1" type="mixed" route="r8" depart="36" departPosLat="random"/>
    <vehicle id="r4_2" type="mixed" route="r4" depart="37" departPosLat="random"/>
    <vehicle id="r6_3" type="mixed" route="r6" depart="40" departPosLat="random"/>
    <vehicle id="r0_4" type="mixed" route="r0" depart="42" departPosLat="random"/>
    <vehicle id="r4_5" type="mixed" route="r4" depart="48" departPosLat="random"/>
    <vehicle id="r5_6" type="mixed" route="r5" depart="52" departPosLat="random"/>
    <vehicle id="r6_7" type="mixed" route="r6" depart="53" departPosLat="random"/>
    <vehicle id="r0_8" type="mixed" route="r0" depart="53" departPosLat="random"/>
    <vehicle id="r10_9" type="mixed" route="r10" depart="55" departPosLat="random"/>
    <vehicle id="r1_10" type="mixed" route="r1" depart="57" departPosLat="random"/>
    <vehicle id="r0_11" type="mixed" route="r0" depart="57" departPosLat="random"/>
    <vehicle id="r0_12" type="mixed" route="r0" depart="60" departPosLat="random"/>
    <vehicle id="r6_13" type="mixed" route="r6" depart="61" departPosLat="random"/>
    <vehicle id="r9_14" type="mixed" route="r9" depart="62" departPosLat="random"/>
    <vehicle id="r10_15" type="mixed" route="r10" depart="65" departPosLat="random"/>
    <vehicle id="r1_16" type="mixed" route="r1" depart="67" departPosLat="random"/>
    <vehicle id="r0_17" type="mixed" route="r0" depart="68" departPosLat="random"/>
    <vehicle id="r2_18" type="mixed" route="r2" depart="68" departPosLat="random"/>
    <vehicle id="r2_19" type="mixed" route="r2" depart="68" departPosLat="random"/>
    <vehicle id="r0_20" type="mixed" route="r0" depart="71" departPosLat="random"/>
    <vehicle id="r3_21" type="mixed" route="r3" depart="71" departPosLat="random"/>
    <vehicle id="r0_22" type="mixed" route="r0" depart="72" departPosLat="random"/>
    <vehicle id="r4_23" type="mixed" route="r4" depart="73" departPosLat="random"/>
    <vehicle id="r8_24" type="mixed" route="r8" depart="75" departPosLat="random"/>
    <vehicle id="r6_25" type="mixed" route="r6" depart="77" departPosLat="random"/>
    <vehicle id="r6_26" type="mixed" route="r6" depart="78" departPosLat="random"/>
    <vehicle id="r0_27" type="mixed" route="r0" depart="79" departPosLat="random"/>
    <vehicle id="r10_28" type="mixed" route="r10" depart="80" departPosLat="random"/>
    <vehicle id="r6_29" type="mixed" route="r6" depart="80" departPosLat="random"/>
    <vehicle id="r8_30" type="mixed" route="r8" depart="80" departPosLat="random"/>
    <vehicle id="r6_31" type="mixed" route="r6" depart="82" departPosLat="random"/>
    <vehicle id="r6_32" type="mixed" route="r6" depart="82" departPosLat="random"/>
    <vehicle id="r0_33" type="mixed" route="r0" depart="82" departPosLat="random"/>
    <vehicle id="r2_34" type="mixed" route="r2" depart="83" departPosLat="random"/>
    <vehicle id="r10_35" type="mixed" route="r10" depart="85" departPosLat="random"/>
    <vehicle id="r7_36" type="mixed" route="r7" depart="86" departPosLat="random"/>
    <vehicle id="r2_37" type="mixed" route="r2" depart="88" departPosLat="random"/>
    <vehicle id="r4_38" type="mixed" route="r4" depart="89" departPosLat="random"/>
    <vehicle id="r6_39" type="mixed" route="r6" depart="89" departPosLat="random"/>
    <vehicle id="r6_40" type="mixed" route="r6" depart="92" departPosLat="random"/>
    <vehicle id="r0_41" type="mixed" route="r0" depart="93" departPosLat="random"/>
    <vehicle id="r3_42" type="mixed" route="r3" depart="94" departPosLat="random"/>
    <vehicle id="r1_43" type="mixed" route="r1" depart="96" departPosLat="random"/>
    <vehicle id="r9_44" type="mixed" route="r9" depart="96" departPosLat="random"/>
    <vehicle id="r2_45" type="mixed" route="r2" depart="97" departPosLat="random"/>
    <vehicle id="r7_46" type="mixed" route="r7" depart="97" departPosLat="random"/>
    <vehicle id="r5_47" type="mixed" route="r5" depart="97" departPosLat="random"/>
    <vehicle id="r6_48" type="mixed" route="r6" depart="98" departPosLat="random"/>
    <vehicle id="r9_49" type="mixed" route="r9" depart="100" departPosLat="random"/>
    <vehicle id="r2_50" type="mixed" route="r2" depart="100" departPosLat="random"/>
    <vehicle id="r0_51" type="mixed" route="r0" depart="102" departPosLat="random"/>
    <vehicle id="r11_52" type="mixed" route="r11" depart="102" departPosLat="random"/>
    <vehicle id="r5_53" type="mixed" route="r5" depart="102" departPosLat="random"/>
    <vehicle id="r11_54" type="mixed" route="r11" depart="104" departPosLat="random"/>
    <vehicle id="r4_55" type="mixed" route="r4" depart="105" departPosLat="random"/>
    <vehicle id="r3_56" type="mixed" route="r3" depart="108" departPosLat="random"/>
    <vehicle id="r0_57" type="mixed" route="r0" depart="108" departPosLat="random"/>
    <vehicle id="r4_58" type="mixed" route="r4" depart="108" departPosLat="random"/>
    <vehicle id="r0_59" type="mixed" route="r0" depart="108" departPosLat="random"/>
    <vehicle id="r2_60" type="mixed" route="r2" depart="108" departPosLat="random"/>
    <vehicle id="r0_61" type="mixed" route="r0" depart="109" departPosLat="random"/>
    <vehicle id="r7_62" type="mixed" route="r7" depart="109" departPosLat="random"/>
    <vehicle id="r6_63" type="mixed" route="r6" depart="110" departPosLat="random"/>
    <vehicle id="r5_64" type="mixed" route="r5" depart="115" departPosLat="random"/>
    <vehicle id="r0_65" type="mixed" route="r0" depart="115" departPosLat="random"/>
    <vehicle id="r4_66" type="mixed" route="r4" depart="115" departPosLat="random"/>
    <vehicle id="r8_67" type="mixed" route="r8" depart="115" departPosLat="random"/>
    <vehicle id="r5_68" type="mixed" route="r5" depart="119" departPosLat="random"/>
    <vehicle id="r9_69" type="mixed" route="r9" depart="120" departPosLat="random"/>
    <vehicle id="r6_70" type="mixed" route="r6" depart="120" departPosLat="random"/>
    <vehicle id="r6_71" type="mixed" route="r6" depart="122" departPosLat="random"/>
    <vehicle id="r10_72" type="mixed" route="r10" depart="122" departPosLat="random"/>
    <vehicle id="r0_73" type="mixed" route="r0" depart="122" departPosLat="random"/>
    <vehicle id="r0_74" type="mixed" route="r0" depart="126" departPosLat="random"/>
    <vehicle id="r9_75" type="mixed" route="r9" depart="128" departPosLat="random"/>
    <vehicle id="r0_76" type="mixed" route="r0" depart="128" departPosLat="random"/>
    <vehicle id="r4_77" type="mixed" route="r4" depart="130" departPosLat="random"/>
    <vehicle id="r2_78" type="mixed" route="r2" depart="130" departPosLat="random"/>
    <vehicle id="r9_79" type="mixed" route="r9" depart="130" departPosLat="random"/>
    <vehicle id="r11_80" type="mixed" route="r11" depart="131" departPosLat="random"/>
    <vehicle id="r9_81" type="mixed" route="r9" depart="132" departPosLat="random"/>
    <vehicle id="r6_82" type="mixed" route="r6" depart="132" departPosLat="random"/>
    <vehicle id="r5_83" type="mixed" route="r5" depart="133" departPosLat="random"/>
    <vehicle id="r0_84" type="mixed" route="r0" depart="134" departPosLat="random"/>
    <vehicle id="r0_85" type="mixed" route="r0" depart="135" departPosLat="random"/>
    <vehicle id="r11_86" type="mixed" route="r11" depart="136" departPosLat="random"/>
    <vehicle id="r9_87" type="mixed" route="r9" depart="137" departPosLat="random"/>
    <vehicle id="r10_88" type="mixed" route="r10" depart="138" departPosLat="random"/>
    <vehicle id="r6_89" type="mixed" route="r6" depart="139" departPosLat="random"/>
    <vehicle id="r9_90" type="mixed" route="r9" depart="139" departPosLat="random"/>
    <vehicle id="r6_91" type="mixed" route="r6" depart="140" departPosLat="random"/>
    <vehicle id="r6_92" type="mixed" route="r6" depart="140" departPosLat="random"/>
    <vehicle id="r1_93" type="mixed" route="r1" depart="141" departPosLat="random"/>
    <vehicle id="r9_94" type="mixed" route="r9" depart="141" departPosLat="random"/>
    <vehicle id="r6_95" type="mixed" route="r6" depart="142" departPosLat="random"/>
    <vehicle id="r0_96" type="mixed" route="r0" depart="142" departPosLat="random"/>
    <vehicle id="r6_97" type="mixed" route="r6" depart="143" departPosLat="random"/>
    <vehicle id="r7_98" type="mixed" route="r7" depart="145" departPosLat="random"/>
    <vehicle id="r6_99" type="mixed" route="r6" depart="145" departPosLat="random"/>
    <vehicle id="r0_100" type="mixed" route="r0" depart="146" departPosLat="random"/>
    <vehicle id="r5_101" type="mixed" route="r5" depart="146" departPosLat="random"/>
    <vehicle id="r6_102" type="mixed" route="r6" depart="147" departPosLat="random"/>
    <vehicle id="r5_103" type="mixed" route="r5" depart="148" departPosLat="random"/>
    <vehicle id="r5_104" type="mixed" route="r5" depart="148" departPosLat="random"/>
    <vehicle id="r6_105" type="mixed" route="r6" depart="148" departPosLat="random"/>
    <vehicle id="r0_106" type="mixed" route="r0" depart="149" departPosLat="random"/>
    <vehicle id="r7_107" type="mixed" route="r7" depart="149" departPosLat="random"/>
    <vehicle id="r6_108" type="mixed" route="r6" depart="149" departPosLat="random"/>
    <vehicle id="r3_109" type="mixed" route="r3" depart="149" departPosLat="random"/>
    <vehicle id="r3_110" type="mixed" route="r3" depart="151" departPosLat="random"/>
    <vehicle id="r0_111" type="mixed" route="r0" depart="151" departPosLat="random"/>
    <vehicle id="r0_112" type="mixed" route="r0" depart="152" departPosLat="random"/>
    <vehicle id="r0_113" type="mixed" route="r0" depart="152" departPosLat="random"/>
    <vehicle id="r3_114" type="mixed" route="r3" depart="153" departPosLat="random"/>
    <vehicle id="r2_115" type="mixed" route="r2" depart="154" departPosLat="random"/>
    <vehicle id="r6_116" type="mixed" route="r6" depart="155" departPosLat="random"/>
    <vehicle id="r9_117" type="mixed" route="r9" depart="155" departPosLat="random"/>
    <vehicle id="r6_118" type="mixed" route="r6" depart="155" departPosLat="random"/>
    <vehicle id="r9_119" type="mixed" route="r9" depart="155" departPosLat="random"/>
    <vehicle id="r0_120" type="mixed" route="r0" depart="156" departPosLat="random"/>
    <vehicle id="r6_121" type="mixed" route="r6" depart="157" departPosLat="random"/>
    <vehicle id="r9_122" type="mixed" route="r9" depart="157" departPosLat="random"/>
    <vehicle id="r5_123" type="mixed" route="r5" depart="157" departPosLat="random"/>
    <vehicle id="r6_124" type="mixed" route="r6" depart="160" departPosLat="random"/>
    <vehicle id="r6_125" type="mixed" route="r6" depart="160" departPosLat="random"/>
    <vehicle id="r8_126" type="mixed" route="r8" depart="160" departPosLat="random"/>
    <vehicle id="r0_127" type="mixed" route="r0" depart="162" departPosLat="random"/>
    <vehicle id="r0_128" type="mixed" route="r0" depart="163" departPosLat="random"/>
    <vehicle id="r9_129" type="mixed" route="r9" depart="163" departPosLat="random"/>
    <vehicle id="r0_130" type="mixed" route="r0" depart="164" departPosLat="random"/>
    <vehicle id="r6_131" type="mixed" route="r6" depart="164" departPosLat="random"/>
    <vehicle id="r6_132" type="mixed" route="r6" depart="164" departPosLat="random"/>
    <vehicle id="r3_133" type="mixed" route="r3" depart="165" departPosLat="random"/>
    <vehicle id="r2_134" type="mixed" route="r2" depart="166" departPosLat="random"/>
    <vehicle id="r2_135" type="mixed" route="r2" depart="168" departPosLat="random"/>
    <vehicle id="r7_136" type="mixed" route="r7" depart="168" departPosLat="random"/>
    <vehicle id="r6_137" type="mixed" route="r6" depart="168" departPosLat="random"/>
    <vehicle id="r6_138" type="mixed" route="r6" depart="169" departPosLat="random"/>
    <vehicle id="r6_139" type="mixed" route="r6" depart="171" departPosLat="random"/>
    <vehicle id="r3_140" type="mixed" route="r3" depart="171" departPosLat="random"/>
    <vehicle id="r0_141" type="mixed" route="r0" depart="171" departPosLat="random"/>
    <vehicle id="r0_142" type="mixed" route="r0" depart="172" departPosLat="random"/>
    <vehicle id="r2_143" type="mixed" route="r2" depart="172" departPosLat="random"/>
    <vehicle id="r5_144" type="mixed" route="r5" depart="173" departPosLat="random"/>
    <vehicle id="r0_145" type="mixed" route="r0" depart="174" departPosLat="random"/>
    <vehicle id="r2_146" type="mixed" route="r2" depart="174" departPosLat="random"/>
    <vehicle id="r0_147" type="mixed" route="r0" depart="175" departPosLat="random"/>
    <vehicle id="r7_148" type="mixed" route="r7" depart="175" departPosLat="random"/>
    <vehicle id="r7_149" type="mixed" route="r7" depart="176" departPosLat="random"/>
    <vehicle id="r0_150" type="mixed" route="r0" depart="176" departPosLat="random"/>
    <vehicle id="r0_151" type="mixed" route="r0" depart="176" departPosLat="random"/>
    <vehicle id="r6_152" type="mixed" route="r6" depart="177" departPosLat="random"/>
    <vehicle id="r11_153" type="mixed" route="r11" depart="177" departPosLat="random"/>
    <vehicle id="r3_154" type="mixed" route="r3" depart="177" departPosLat="random"/>
    <vehicle id="r0_155" type="mixed" route="r0" depart="178" departPosLat="random"/>
    <vehicle id="r0_156" type="mixed" route="r0" depart="178" departPosLat="random"/>
    <vehicle id="r5_157" type="mixed" route="r5" depart="179" departPosLat="random"/>
    <vehicle id="r2_158" type="mixed" route="r2" depart="179" departPosLat="random"/>
    <vehicle id="r2_159" type="mixed" route="r2" depart="179" departPosLat="random"/>
    <vehicle id="r1_160" type="mixed" route="r1" depart="179" departPosLat="random"/>
    <vehicle id="r10_161" type="mixed" route="r10" depart="180" departPosLat="random"/>
    <vehicle id="r11_162" type="mixed" route="r11" depart="182" departPosLat="random"/>
    <vehicle id="r6_163" type="mixed" route="r6" depart="182" departPosLat="random"/>
    <vehicle id="r0_164" type="mixed" route="r0" depart="184" departPosLat="random"/>
    <vehicle id="r0_165" type="mixed" route="r0" depart="185" departPosLat="random"/>
    <vehicle id="r11_166" type="mixed" route="r11" depart="185" departPosLat="random"/>
    <vehicle id="r6_167" type="mixed" route="r6" depart="185" departPosLat="random"/>
    <vehicle id="r6_168" type="mixed" route="r6" depart="186" departPosLat="random"/>
    <vehicle id="r0_169" type="mixed" route="r0" depart="186" departPosLat="random"/>
    <vehicle id="r8_170" type="mixed" route="r8" depart="186" departPosLat="random"/>
    <vehicle id="r9_171" type="mixed" route="r9" depart="186" departPosLat="random"/>
    <vehicle id="r3_172" type="mixed" route="r3" depart="187" departPosLat="random"/>
    <vehicle id="r6_173" type="mixed" route="r6" depart="190" departPosLat="random"/>
    <vehicle id="r7_174" type="mixed" route="r7" depart="190" departPosLat="random"/>
    <vehicle id="r0_175" type="mixed" route="r0" depart="191" departPosLat="random"/>
    <vehicle id="r5_176" type="mixed" route="r5" depart="192" departPosLat="random"/>
    <vehicle id="r11_177" type="mixed" route="r11" depart="192" departPosLat="random"/>
    <vehicle id="r9_178" type="mixed" route="r9" depart="192" departPosLat="random"/>
    <vehicle id="r3_179" type="mixed" route="r3" depart="193" departPosLat="random"/>
    <vehicle id="r6_180" type="mixed" route="r6" depart="194" departPosLat="random"/>
    <vehicle id="r0_181" type="mixed" route="r0" depart="194" departPosLat="random"/>
    <vehicle id="r2_182" type="mixed" route="r2" depart="194" departPosLat="random"/>
    <vehicle id="r0_183" type="mixed" route="r0" depart="194" departPosLat="random"/>
    <vehicle id="r6_184" type="mixed" route="r6" depart="194" departPosLat="random"/>
    <vehicle id="r0_185" type="mixed" route="r0" depart="194" departPosLat="random"/>
    <vehicle id="r10_186" type="mixed" route="r10" depart="195" departPosLat="random"/>
    <vehicle id="r7_187" type="mixed" route="r7" depart="195" departPosLat="random"/>
    <vehicle id="r0_188" type="mixed" route="r0" depart="196" departPosLat="random"/>
    <vehicle id="r0_189" type="mixed" route="r0" depart="198" departPosLat="random"/>
    <vehicle id="r6_190" type="mixed" route="r6" depart="199" departPosLat="random"/>
    <vehicle id="r0_191" type="mixed" route="r0" depart="201" departPosLat="random"/>
    <vehicle id="r1_192" type="mixed" route="r1" depart="202" departPosLat="random"/>
    <vehicle id="r10_193" type="mixed" route="r10" depart="202" departPosLat="random"/>
    <vehicle id="r0_194" type="mixed" route="r0" depart="203" departPosLat="random"/>
    <vehicle id="r0_195" type="mixed" route="r0" depart="203" departPosLat="random"/>
    <vehicle id="r11_196" type="mixed" route="r11" depart="203" departPosLat="random"/>
    <vehicle id="r0_197" type="mixed" route="r0" depart="204" departPosLat="random"/>
    <vehicle id="r6_198" type="mixed" route="r6" depart="204" departPosLat="random"/>
    <vehicle id="r0_199" type="mixed" route="r0" depart="204" departPosLat="random"/>
    <vehicle id="r9_200" type="mixed" route="r9" depart="205" departPosLat="random"/>
    <vehicle id="r10_201" type="mixed" route="r10" depart="205" departPosLat="random"/>
    <vehicle id="r4_202" type="mixed" route="r4" depart="206" departPosLat="random"/>
    <vehicle id="r0_203" type="mixed" route="r0" depart="206" departPosLat="random"/>
    <vehicle id="r0_204" type="mixed" route="r0" depart="206" departPosLat="random"/>
    <vehicle id="r9_205" type="mixed" route="r9" depart="206" departPosLat="random"/>
    <vehicle id="r10_206" type="mixed" route="r10" depart="208" departPosLat="random"/>
    <vehicle id="r4_207" type="mixed" route="r4" depart="209" departPosLat="random"/>
    <vehicle id="r6_208" type="mixed" route="r6" depart="209" departPosLat="random"/>
    <vehicle id="r0_209" type="mixed" route="r0" depart="209" departPosLat="random"/>
    <vehicle id="r3_210" type="mixed" route="r3" depart="210" departPosLat="random"/>
    <vehicle id="r6_211" type="mixed" route="r6" depart="210" departPosLat="random"/>
    <vehicle id="r9_212" type="mixed" route="r9" depart="211" departPosLat="random"/>
    <vehicle id="r4_213" type="mixed" route="r4" depart="211" departPosLat="random"/>
    <vehicle id="r10_214" type="mixed" route="r10" depart="211" departPosLat="random"/>
    <vehicle id="r5_215" type="mixed" route="r5" depart="212" departPosLat="random"/>
    <vehicle id="r7_216" type="mixed" route="r7" depart="213" departPosLat="random"/>
    <vehicle id="r0_217" type="mixed" route="r0" depart="214" departPosLat="random"/>
    <vehicle id="r3_218" type="mixed" route="r3" depart="215" departPosLat="random"/>
    <vehicle id="r8_219" type="mixed" route="r8" depart="215" departPosLat="random"/>
    <vehicle id="r0_220" type="mixed" route="r0" depart="216" departPosLat="random"/>
    <vehicle id="r8_221" type="mixed" route="r8" depart="216" departPosLat="random"/>
    <vehicle id="r11_222" type="mixed" route="r11" depart="217" departPosLat="random"/>
    <vehicle id="r6_223" type="mixed" route="r6" depart="217" departPosLat="random"/>
    <vehicle id="r8_224" type="mixed" route="r8" depart="218" departPosLat="random"/>
    <vehicle id="r11_225" type="mixed" route="r11" depart="218" departPosLat="random"/>
    <vehicle id="r6_226" type="mixed" route="r6" depart="218" departPosLat="random"/>
    <vehicle id="r8_227" type="mixed" route="r8" depart="219" departPosLat="random"/>
    <vehicle id="r0_228" type="mixed" route="r0" depart="219" departPosLat="random"/>
    <vehicle id="r7_229" type="mixed" route="r7" depart="220" departPosLat="random"/>
    <vehicle id="r7_230" type="mixed" route="r7" depart="220" departPosLat="random"/>
    <vehicle id="r2_231" type="mixed" route="r2" depart="220" departPosLat="random"/>
    <vehicle id="r3_232" type="mixed" route="r3" depart="221" departPosLat="random"/>
    <vehicle id="r8_233" type="mixed" route="r8" depart="221" departPosLat="random"/>
    <vehicle id="r11_234" type="mixed" route="r11" depart="221" departPosLat="random"/>
    <vehicle id="r5_235" type="mixed" route="r5" depart="221" departPosLat="random"/>
    <vehicle id="r7_236" type="mixed" route="r7" depart="222" departPosLat="random"/>
    <vehicle id="r4_237" type="mixed" route="r4" depart="223" departPosLat="random"/>
    <vehicle id="r8_238" type="mixed" route="r8" depart="224" departPosLat="random"/>
    <vehicle id="r11_239" type="mixed" route="r11" depart="224" departPosLat="random"/>
    <vehicle id="r0_240" type="mixed" route="r0" depart="224" departPosLat="random"/>
    <vehicle id="r6_241" type="mixed" route="r6" depart="224" departPosLat="random"/>
    <vehicle id="r6_242" type="mixed" route="r6" depart="224" departPosLat="random"/>
    <vehicle id="r5_243" type="mixed" route="r5" depart="224" departPosLat="random"/>
    <vehicle id="r0_244" type="mixed" route="r0" depart="225" departPosLat="random"/>
    <vehicle id="r3_245" type="mixed" route="r3" depart="226" departPosLat="random"/>
    <vehicle id="r2_246" type="mixed" route="r2" depart="226" departPosLat="random"/>
    <vehicle id="r11_247" type="mixed" route="r11" depart="226" departPosLat="random"/>
    <vehicle id="r11_248" type="mixed" route="r11" depart="227" departPosLat="random"/>
    <vehicle id="r3_249" type="mixed" route="r3" depart="227" departPosLat="random"/>
    <vehicle id="r0_250" type="mixed" route="r0" depart="227" departPosLat="random"/>
    <vehicle id="r4_251" type="mixed" route="r4" depart="227" departPosLat="random"/>
    <vehicle id="r0_252" type="mixed" route="r0" depart="228" departPosLat="random"/>
    <vehicle id="r11_253" type="mixed" route="r11" depart="228" departPosLat="random"/>
    <vehicle id="r0_254" type="mixed" route="r0" depart="230" departPosLat="random"/>
    <vehicle id="r3_255" type="mixed" route="r3" depart="231" departPosLat="random"/>
    <vehicle id="r1_256" type="mixed" route="r1" depart="233" departPosLat="random"/>
    <vehicle id="r0_257" type="mixed" route="r0" depart="233" departPosLat="random"/>
    <vehicle id="r6_258" type="mixed" route="r6" depart="234" departPosLat="random"/>
    <vehicle id="r6_259" type="mixed" route="r6" depart="235" departPosLat="random"/>
    <vehicle id="r8_260" type="mixed" route="r8" depart="236" departPosLat="random"/>
    <vehicle id="r6_261" type="mixed" route="r6" depart="237" departPosLat="random"/>
    <vehicle id="r6_262" type="mixed" route="r6" depart="239" departPosLat="random"/>
    <vehicle id="r3_263" type="mixed" route="r3" depart="240" departPosLat="random"/>
    <vehicle id="r6_264" type="mixed" route="r6" depart="240" departPosLat="random"/>
    <vehicle id="r9_265" type="mixed" route="r9" depart="240" departPosLat="random"/>
    <vehicle id="r2_266" type="mixed" route="r2" depart="241" departPosLat="random"/>
    <vehicle id="r11_267" type="mixed" route="r11" depart="242" departPosLat="random"/>
    <vehicle id="r10_268" type="mixed" route="r10" depart="243" departPosLat="random"/>
    <vehicle id="r6_269" type="mixed" route="r6" depart="244" departPosLat="random"/>
    <vehicle id="r0_270" type="mixed" route="r0" depart="244" departPosLat="random"/>
    <vehicle id="r10_271" type="mixed" route="r10" depart="245" departPosLat="random"/>
    <vehicle id="r6_272" type="mixed" route="r6" depart="246" departPosLat="random"/>
    <vehicle id="r4_273" type="mixed" route="r4" depart="247" departPosLat="random"/>
    <vehicle id="r6_274" type="mixed" route="r6" depart="248" departPosLat="random"/>
    <vehicle id="r3_275" type="mixed" route="r3" depart="249" departPosLat="random"/>
    <vehicle id="r2_276" type="mixed" route="r2" depart="250" departPosLat="random"/>
    <vehicle id="r2_277" type="mixed" route="r2" depart="250" departPosLat="random"/>
    <vehicle id="r10_278" type="mixed" route="r10" depart="250" departPosLat="random"/>
    <vehicle id="r9_279" type="mixed" route="r9" depart="251" departPosLat="random"/>
    <vehicle id="r6_280" type="mixed" route="r6" depart="252" departPosLat="random"/>
    <vehicle id="r0_281" type="mixed" route="r0" depart="252" departPosLat="random"/>
    <vehicle id="r6_282" type="mixed" route="r6" depart="252" departPosLat="random"/>
    <vehicle id="r9_283" type="mixed" route="r9" depart="252" departPosLat="random"/>
    <vehicle id="r8_284" type="mixed" route="r8" depart="252" departPosLat="random"/>
    <vehicle id="r6_285" type="mixed" route="r6" depart="253" departPosLat="random"/>
    <vehicle id="r0_286" type="mixed" route="r0" depart="254" departPosLat="random"/>
    <vehicle id="r6_287" type="mixed" route="r6" depart="255" departPosLat="random"/>
    <vehicle id="r11_288" type="mixed" route="r11" depart="255" departPosLat="random"/>
    <vehicle id="r6_289" type="mixed" route="r6" depart="255" departPosLat="random"/>
    <vehicle id="r6_290" type="mixed" route="r6" depart="256" departPosLat="random"/>
    <vehicle id="r6_291" type="mixed" route="r6" depart="256" departPosLat="random"/>
    <vehicle id="r6_292" type="mixed" route="r6" depart="256" departPosLat="random"/>
    <vehicle id="r2_293" type="mixed" route="r2" depart="257" departPosLat="random"/>
    <vehicle id="r1_294" type="mixed" route="r1" depart="257" departPosLat="random"/>
    <vehicle id="r6_295" type="mixed" route="r6" depart="257" departPosLat="random"/>
    <vehicle id="r7_296" type="mixed" route="r7" depart="258" departPosLat="random"/>
    <vehicle id="r0_297" type="mixed" route="r0" depart="260" departPosLat="random"/>
    <vehicle id="r10_298" type="mixed" route="r10" depart="260" departPosLat="random"/>
    <vehicle id="r0_299" type="mixed" route="r0" depart="260" departPosLat="random"/>
    <vehicle id="r10_300" type="mixed" route="r10" depart="261" departPosLat="random"/>
    <vehicle id="r0_301" type="mixed" route="r0" depart="261" departPosLat="random"/>
    <vehicle id="r0_302" type="mixed" route="r0" depart="262" departPosLat="random"/>
    <vehicle id="r0_303" type="mixed" route="r0" depart="262" departPosLat="random"/>
    <vehicle id="r2_304" type="mixed" route="r2" depart="263" departPosLat="random"/>
    <vehicle id="r10_305" type="mixed" route="r10" depart="263" departPosLat="random"/>
    <vehicle id="r7_306" type="mixed" route="r7" depart="263" departPosLat="random"/>
    <vehicle id="r10_307" type="mixed" route="r10" depart="263" departPosLat="random"/>
    <vehicle id="r0_308" type="mixed" route="r0" depart="264" departPosLat="random"/>
    <vehicle id="r8_309" type="mixed" route="r8" depart="264" departPosLat="random"/>
    <vehicle id="r0_310" type="mixed" route="r0" depart="265" departPosLat="random"/>
    <vehicle id="r0_311" type="mixed" route="r0" depart="266" departPosLat="random"/>
    <vehicle id="r0_312" type="mixed" route="r0" depart="266" departPosLat="random"/>
    <vehicle id="r6_313" type="mixed" route="r6" depart="267" departPosLat="random"/>
    <vehicle id="r4_314" type="mixed" route="r4" depart="267" departPosLat="random"/>
    <vehicle id="r6_315" type="mixed" route="r6" depart="267" departPosLat="random"/>
    <vehicle id="r7_316" type="mixed" route="r7" depart="268" departPosLat="random"/>
    <vehicle id="r2_317" type="mixed" route="r2" depart="268" departPosLat="random"/>
    <vehicle id="r11_318" type="mixed" route="r11" depart="268" departPosLat="random"/>
    <vehicle id="r0_319" type="mixed" route="r0" depart="269" departPosLat="random"/>
    <vehicle id="r1_320" type="mixed" route="r1" depart="269" departPosLat="random"/>
    <vehicle id="r11_321" type="mixed" route="r11" depart="270" departPosLat="random"/>
    <vehicle id="r8_322" type="mixed" route="r8" depart="271" departPosLat="random"/>
    <vehicle id="r0_323" type="mixed" route="r0" depart="273" departPosLat="random"/>
    <vehicle id="r10_324" type="mixed" route="r10" depart="273" departPosLat="random"/>
    <vehicle id="r0_325" type="mixed" route="r0" depart="273" departPosLat="random"/>
    <vehicle id="r8_326" type="mixed" route="r8" depart="273" departPosLat="random"/>
    <vehicle id="r6_327" type="mixed" route="r6" depart="274" departPosLat="random"/>
    <vehicle id="r1_328" type="mixed" route="r1" depart="274" departPosLat="random"/>
    <vehicle id="r3_329" type="mixed" route="r3" depart="274" departPosLat="random"/>
    <vehicle id="r4_330" type="mixed" route="r4" depart="274" departPosLat="random"/>
    <vehicle id="r1_331" type="mixed" route="r1" depart="276" departPosLat="random"/>
    <vehicle id="r11_332" type="mixed" route="r11" depart="278" departPosLat="random"/>
    <vehicle id="r2_333" type="mixed" route="r2" depart="278" departPosLat="random"/>
    <vehicle id="r10_334" type="mixed" route="r10" depart="279" departPosLat="random"/>
    <vehicle id="r9_335" type="mixed" route="r9" depart="279" departPosLat="random"/>
    <vehicle id="r8_336" type="mixed" route="r8" depart="280" departPosLat="random"/>
    <vehicle id="r0_337" type="mixed" route="r0" depart="280" departPosLat="random"/>
    <vehicle id="r6_338" type="mixed" route="r6" depart="281" departPosLat="random"/>
    <vehicle id="r9_339" type="mixed" route="r9" depart="281" departPosLat="random"/>
    <vehicle id="r11_340" type="mixed" route="r11" depart="281" departPosLat="random"/>