<routes>
    <vTypeDistribution id="mixed">
<vType id="car" vClass="passenger" speedDev="0.2" latAlignment="center" probability="0.6"/>
<vType id="moped" vClass="moped" speedDev="0.4" latAlignment="center" probability="0.4"/>

    </vTypeDistribution>
    <route id="r0" edges="W_in C_E"/>
    <route id="r1" edges="W_in C_S"/>
    <route id="r2" edges="W_in C_N"/>
    <route id="r3" edges="S_in C_N"/>
    <route id="r4" edges="S_in C_W"/>
    <route id="r5" edges="S_in C_E"/>
    <route id="r6" edges="E_in C_W"/>
    <route id="r7" edges="E_in C_S"/>
    <route id="r8" edges="E_in C_N"/>
    <route id="r9" edges="N_in C_S"/>
    <route id="r10" edges="N_in C_W"/>
    <route id="r11" edges="N_in C_E"/>
    <vehicle id="r7_0" type="mixed" route="r7" depart="34" departPos="random_free"/>
    <vehicle id="r0_1" type="mixed" route="r0" depart="35" departPos="random_free"/>
    <vehicle id="r3_2" type="mixed" route="r3" depart="37" departPos="random_free"/>
    <vehicle id="r2_3" type="mixed" route="r2" depart="40" departPos="random_free"/>
    <vehicle id="r9_4" type="mixed" route="r9" depart="41" departPos="random_free"/>
    <vehicle id="r8_5" type="mixed" route="r8" depart="48" departPos="random_free"/>
    <vehicle id="r10_6" type="mixed" route="r10" depart="52" departPos="random_free"/>
    <vehicle id="r0_7" type="mixed" route="r0" depart="52" departPos="random_free"/>
    <vehicle id="r5_8" type="mixed" route="r5" depart="53" departPos="random_free"/>
    <vehicle id="r0_9" type="mixed" route="r0" depart="55" departPos="random_free"/>
    <vehicle id="r2_10" type="mixed" route="r2" depart="57" departPos="random_free"/>
    <vehicle id="r6_11" type="mixed" route="r6" depart="57" departPos="random_free"/>
    <vehicle id="r0_12" type="mixed" route="r0" depart="60" departPos="random_free"/>
    <vehicle id="r2_13" type="mixed" route="r2" depart="60" departPos="random_free"/>
    <vehicle id="r7_14" type="mixed" route="r7" depart="62" departPos="random_free"/>
    <vehicle id="r6_15" type="mixed" route="r6" depart="64" departPos="random_free"/>
    <vehicle id="r2_16" type="mixed" route="r2" depart="67" departPos="random_free"/>
    <vehicle id="r7_17" type="mixed" route="r7" depart="67" departPos="random_free"/>
    <vehicle id="r9_18" type="mixed" route="r9" depart="67" departPos="random_free"/>
    <vehicle id="r0_19" type="mixed" route="r0" depart="68" departPos="random_free"/>
    <vehicle id="r9_20" type="mixed" route="r9" depart="70" departPos="random_free"/>
    <vehicle id="r8_21" type="mixed" route="r8" depart="71" departPos="random_free"/>
    <vehicle id="r4_22" type="mixed" route="r4" depart="72" departPos="random_free"/>
    <vehicle id="r1_23" type="mixed" route="r1" depart="73" departPos="random_free"/>
    <vehicle id="r11_24" type="mixed" route="r11" depart="75" departPos="random_free"/>
    <vehicle id="r4_25" type="mixed" route="r4" depart="76" departPos="random_free"/>
    <vehicle id="r0_26" type="mixed" route="r0" depart="78" departPos="random_free"/>
    <vehicle id="r1_27" type="mixed" route="r1" depart="78" departPos="random_free"/>
    <vehicle id="r10_28" type="mixed" route="r10" depart="80" departPos="random_free"/>
    <vehicle id="r7_29" type="mixed" route="r7" depart="80" departPos="random_free"/>
    <vehicle id="r9_30" type="mixed" route="r9" depart="80" departPos="random_free"/>
    <vehicle id="r8_31" type="mixed" route="r8" depart="81" departPos="random_free"/>
    <vehicle id="r6_32" type="mixed" route="r6" depart="81" departPos="random_free"/>
    <vehicle id="r11_33" type="mixed" route="r11" depart="81" departPos="random_free"/>
    <vehicle id="r4_34" type="mixed" route="r4" depart="82" departPos="random_free"/>
    <vehicle id="r6_35" type="mixed" route="r6" depart="85" departPos="random_free"/>
    <vehicle id="r9_36" type="mixed" route="r9" depart="86" departPos="random_free"/>
    <vehicle id="r7_37" type="mixed" route="r7" depart="87" departPos="random_free"/>
    <vehicle id="r10_38" type="mixed" route="r10" depart="88" departPos="random_free"/>
    <vehicle id="r7_39" type="mixed" route="r7" depart="89" departPos="random_free"/>
    <vehicle id="r8_40" type="mixed" route="r8" depart="92" departPos="random_free"/>
    <vehicle id="r0_41" type="mixed" route="r0" depart="92" departPos="random_free"/>
    <vehicle id="r2_42" type="mixed" route="r2" depart="93" departPos="random_free"/>
    <vehicle id="r3_43" type="mixed" route="r3" depart="95" departPos="random_free"/>
    <vehicle id="r0_44" type="mixed" route="r0" depart="96" departPos="random_free"/>
    <vehicle id="r3_45" type="mixed" route="r3" depart="96" departPos="random_free"/>
    <vehicle id="r1_46" type="mixed" route="r1" depart="96" departPos="random_free"/>
    <vehicle id="r3_47" type="mixed" route="r3" depart="97" departPos="random_free"/>
    <vehicle id="r7_48" type="mixed" route="r7" depart="97" departPos="random_free"/>
    <vehicle id="r4_49" type="mixed" route="r4" depart="100" departPos="random_free"/>
    <vehicle id="r4_50" type="mixed" route="r4" depart="100" departPos="random_free"/>
    <vehicle id="r2_51" type="mixed" route="r2" depart="101" departPos="random_free"/>
    <vehicle id="r3_52" type="mixed" route="r3" depart="102" departPos="random_free"/>
    <vehicle id="r11_53" type="mixed" route="r11" depart="102" departPos="random_free"/>
    <vehicle id="r7_54" type="mixed" route="r7" depart="103" departPos="random_free"/>
    <vehicle id="r7_55" type="mixed" route="r7" depart="105" departPos="random_free"/>
    <vehicle id="r2_56" type="mixed" route="r2" depart="107" departPos="random_free"/>
    <vehicle id="r8_57" type="mixed" route="r8" depart="107" departPos="random_free"/>
    <vehicle id="r2_58" type="mixed" route="r2" depart="107" departPos="random_free"/>
    <vehicle id="r4_59" type="mixed" route="r4" depart="107" departPos="random_free"/>
    <vehicle id="r11_60" type="mixed" route="r11" depart="108" departPos="random_free"/>
    <vehicle id="r7_61" type="mixed" route="r7" depart="108" departPos="random_free"/>
    <vehicle id="r6_62" type="mixed" route="r6" depart="109" departPos="random_free"/>
    <vehicle id="r8_63" type="mixed" route="r8" depart="109" departPos="random_free"/>
    <vehicle id="r10_64" type="mixed" route="r10" depart="114" departPos="random_free"/>
    <vehicle id="r9_65" type="mixed" route="r9" depart="114" departPos="random_free"/>
    <vehicle id="r2_66" type="mixed" route="r2" depart="115" departPos="random_free"/>
    <vehicle id="r0_67" type="mixed" route="r0" depart="115" departPos="random_free"/>
    <vehicle id="r4_68" type="mixed" route="r4" depart="118" departPos="random_free"/>
    <vehicle id="r3_69" type="mixed" route="r3" depart="120" departPos="random_free"/>
    <vehicle id="r2_70" type="mixed" route="r2" depart="120" departPos="random_free"/>
    <vehicle id="r11_71" type="mixed" route="r11" depart="121" departPos="random_free"/>
    <vehicle id="r10_72" type="mixed" route="r10" depart="122" departPos="random_free"/>
    <vehicle id="r4_73" type="mixed" route="r4" depart="122" departPos="random_free"/>
    <vehicle id="r7_74" type="mixed" route="r7" depart="125" departPos="random_free"/>
    <vehicle id="r5_75" type="mixed" route="r5" depart="127" departPos="random_free"/>
    <vehicle id="r10_76" type="mixed" route="r10" depart="128" departPos="random_free"/>
    <vehicle id="r5_77" type="mixed" route="r5" depart="129" departPos="random_free"/>
    <vehicle id="r3_78" type="mixed" route="r3" depart="129" departPos="random_free"/>
    <vehicle id="r3_79" type="mixed" route="r3" depart="130" departPos="random_free"/>
    <vehicle id="r6_80" type="mixed" route="r6" depart="131" departPos="random_free"/>
    <vehicle id="r3_81" type="mixed" route="r3" depart="131" departPos="random_free"/>
    <vehicle id="r7_82" type="mixed" route="r7" depart="132" departPos="random_free"/>
    <vehicle id="r10_83" type="mixed" route="r10" depart="132" departPos="random_free"/>
    <vehicle id="r5_84" type="mixed" route="r5" depart="134" departPos="random_free"/>
    <vehicle id="r2_85" type="mixed" route="r2" depart="135" departPos="random_free"/>
    <vehicle id="r11_86" type="mixed" route="r11" depart="135" departPos="random_free"/>
    <vehicle id="r6_87" type="mixed" route="r6" depart="137" departPos="random_free"/>
    <vehicle id="r0_88" type="mixed" route="r0" depart="138" departPos="random_free"/>
    <vehicle id="r0_89" type="mixed" route="r0" depart="138" departPos="random_free"/>
    <vehicle id="r1_90" type="mixed" route="r1" depart="139" departPos="random_free"/>
    <vehicle id="r7_91" type="mixed" route="r7" depart="139" departPos="random_free"/>
    <vehicle id="r9_92" type="mixed" route="r9" depart="140" departPos="random_free"/>
    <vehicle id="r5_93" type="mixed" route="r5" depart="140" departPos="random_free"/>
    <vehicle id="r0_94" type="mixed" route="r0" depart="141" departPos="random_free"/>
    <vehicle id="r4_95" type="mixed" route="r4" depart="141" departPos="random_free"/>
    <vehicle id="r11_96" type="mixed" route="r11" depart="142" departPos="random_free"/>
    <vehicle id="r6_97" type="mixed" route="r6" depart="142" departPos="random_free"/>
    <vehicle id="r11_98" type="mixed" route="r11" depart="144" departPos="random_free"/>
    <vehicle id="r10_99" type="mixed" route="r10" depart="145" departPos="random_free"/>
    <vehicle id="r0_100" type="mixed" route="r0" depart="145" departPos="random_free"/>
    <vehicle id="r8_101" type="mixed" route="r8" depart="146" departPos="random_free"/>
    <vehicle id="r8_102" type="mixed" route="r8" depart="146" departPos="random_free"/>
    <vehicle id="r6_103" type="mixed" route="r6" depart="147" departPos="random_free"/>
    <vehicle id="r3_104" type="mixed" route="r3" depart="148" departPos="random_free"/>
    <vehicle id="r7_105" type="mixed" route="r7" depart="148" departPos="random_free"/>
    <vehicle id="r1_106" type="mixed" route="r1" depart="148" departPos="random_free"/>
    <vehicle id="r5_107" type="mixed" route="r5" depart="149" departPos="random_free"/>
    <vehicle id="r5_108" type="mixed" route="r5" depart="149" departPos="random_free"/>
    <vehicle id="r11_109" type="mixed" route="r11" depart="149" departPos="random_free"/>
    <vehicle id="r10_110" type="mixed" route="r10" depart="150" departPos="random_free"/>
    <vehicle id="r3_111" type="mixed" route="r3" depart="150" departPos="random_free"/>
    <vehicle id="r6_112" type="mixed" route="r6" depart="152" departPos="random_free"/>
    <vehicle id="r2_113" type="mixed" route="r2" depart="152" departPos="random_free"/>
    <vehicle id="r10_114" type="mixed" route="r10" depart="153" departPos="random_free"/>
    <vehicle id="r10_115" type="mixed" route="r10" depart="153" departPos="random_free"/>
    <vehicle id="r3_116" type="mixed" route="r3" depart="154" departPos="random_free"/>
    <vehicle id="r7_117" type="mixed" route="r7" depart="154" departPos="random_free"/>
    <vehicle id="r7_118" type="mixed" route="r7" depart="154" departPos="random_free"/>
    <vehicle id="r1_119" type="mixed" route="r1" depart="154" departPos="random_free"/>
    <vehicle id="r9_120" type="mixed" route="r9" depart="156" departPos="random_free"/>
    <vehicle id="r6_121" type="mixed" route="r6" depart="156" departPos="random_free"/>
    <vehicle id="r9_122" type="mixed" route="r9" depart="157" departPos="random_free"/>
    <vehicle id="r6_123" type="mixed" route="r6" depart="157" departPos="random_free"/>
    <vehicle id="r0_124" type="mixed" route="r0" depart="159" departPos="random_free"/>
    <vehicle id="r4_125" type="mixed" route="r4" depart="160" departPos="random_free"/>
    <vehicle id="r0_126" type="mixed" route="r0" depart="160" departPos="random_free"/>
    <vehicle id="r11_127" type="mixed" route="r11" depart="161" departPos="random_free"/>
    <vehicle id="r10_128" type="mixed" route="r10" depart="162" departPos="random_free"/>
    <vehicle id="r9_129" type="mixed" route="r9" depart="163" departPos="random_free"/>
    <vehicle id="r3_130" type="mixed" route="r3" depart="163" departPos="random_free"/>
    <vehicle id="r0_131" type="mixed" route="r0" depart="163" departPos="random_free"/>
    <vehicle id="r10_132" type="mixed" route="r10" depart="164" departPos="random_free"/>
    <vehicle id="r11_133" type="mixed" route="r11" depart="164" departPos="random_free"/>
    <vehicle id="r0_134" type="mixed" route="r0" depart="165" departPos="random_free"/>
    <vehicle id="r6_135" type="mixed" route="r6" depart="167" departPos="random_free"/>
    <vehicle id="r0_136" type="mixed" route="r0" depart="168" departPos="random_free"/>
    <vehicle id="r9_137" type="mixed" route="r9" depart="168" departPos="random_free"/>
    <vehicle id="r9_138" type="mixed" route="r9" depart="168" departPos="random_free"/>
    <vehicle id="r1_139" type="mixed" route="r1" depart="170" departPos="random_free"/>
    <vehicle id="r5_140" type="mixed" route="r5" depart="171" departPos="random_free"/>
    <vehicle id="r6_141" type="mixed" route="r6" depart="171" departPos="random_free"/>
    <vehicle id="r3_142" type="mixed" route="r3" depart="171" departPos="random_free"/>
    <vehicle id="r10_143" type="mixed" route="r10" depart="172" departPos="random_free"/>
    <vehicle id="r5_144" type="mixed" route="r5" depart="173" departPos="random_free"/>
    <vehicle id="r2_145" type="mixed" route="r2" depart="173" departPos="random_free"/>
    <vehicle id="r6_146" type="mixed" route="r6" depart="173" departPos="random_free"/>
    <vehicle id="r8_147" type="mixed" route="r8" depart="174" departPos="random_free"/>
    <vehicle id="r2_148" type="mixed" route="r2" depart="175" departPos="random_free"/>
    <vehicle id="r4_149" type="mixed" route="r4" depart="175" departPos="random_free"/>
    <vehicle id="r11_150" type="mixed" route="r11" depart="176" departPos="random_free"/>
    <vehicle id="r7_151" type="mixed" route="r7" depart="176" departPos="random_free"/>
    <vehicle id="r5_152" type="mixed" route="r5" depart="176" departPos="random_free"/>
    <vehicle id="r6_153" type="mixed" route="r6" depart="176" departPos="random_free"/>
    <vehicle id="r1_154" type="mixed" route="r1" depart="177" departPos="random_free"/>
    <vehicle id="r2_155" type="mixed" route="r2" depart="177" departPos="random_free"/>
    <vehicle id="r4_156" type="mixed" route="r4" depart="178" departPos="random_free"/>
    <vehicle id="r7_157" type="mixed" route="r7" depart="178" departPos="random_free"/>
    <vehicle id="r3_158" type="mixed" route="r3" depart="178" departPos="random_free"/>
    <vehicle id="r2_159" type="mixed" route="r2" depart="179" departPos="random_free"/>
    <vehicle id="r0_160" type="mixed" route="r0" depart="179" departPos="random_free"/>
    <vehicle id="r7_161" type="mixed" route="r7" depart="180" departPos="random_free"/>
    <vehicle id="r2_162" type="mixed" route="r2" depart="182" departPos="random_free"/>
    <vehicle id="r10_163" type="mixed" route="r10" depart="182" departPos="random_free"/>
    <vehicle id="r10_164" type="mixed" route="r10" depart="184" departPos="random_free"/>
    <vehicle id="r0_165" type="mixed" route="r0" depart="184" departPos="random_free"/>
    <vehicle id="r3_166" type="mixed" route="r3" depart="184" departPos="random_free"/>
    <vehicle id="r8_167" type="mixed" route="r8" depart="185" departPos="random_free"/>
    <vehicle id="r2_168" type="mixed" route="r2" depart="185" departPos="random_free"/>
    <vehicle id="r1_169" type="mixed" route="r1" depart="185" departPos="random_free"/>
    <vehicle id="r11_170" type="mixed" route="r11" depart="185" departPos="random_free"/>
    <vehicle id="r6_171" type="mixed" route="r6" depart="186" departPos="random_free"/>
    <vehicle id="r5_172" type="mixed" route="r5" depart="186" departPos="random_free"/>
    <vehicle id="r9_173" type="mixed" route="r9" depart="189" departPos="random_free"/>
    <vehicle id="r9_174" type="mixed" route="r9" depart="189" departPos="random_free"/>
    <vehicle id="r2_175" type="mixed" route="r2" depart="191" departPos="random_free"/>
    <vehicle id="r1_176" type="mixed" route="r1" depart="191" departPos="random_free"/>
    <vehicle id="r5_177" type="mixed" route="r5" depart="191" departPos="random_free"/>
    <vehicle id="r5_178" type="mixed" route="r5" depart="192" departPos="random_free"/>
    <vehicle id="r5_179" type="mixed" route="r5" depart="193" departPos="random_free"/>
    <vehicle id="r8_180" type="mixed" route="r8" depart="193" departPos="random_free"/>
    <vehicle id="r8_181" type="mixed" route="r8" depart="193" departPos="random_free"/>
    <vehicle id="r11_182" type="mixed" route="r11" depart="193" departPos="random_free"/>
    <vehicle id="r1_183" type="mixed" route="r1" depart="194" departPos="random_free"/>
    <vehicle id="r5_184" type="mixed" route="r5" depart="194" departPos="random_free"/>
    <vehicle id="r4_185" type="mixed" route="r4" depart="194" departPos="random_free"/>
    <vehicle id="r10_186" type="mixed" route="r10" depart="194" departPos="random_free"/>
    <vehicle id="r3_187" type="mixed" route="r3" depart="194" departPos="random_free"/>
    <vehicle id="r2_188" type="mixed" route="r2" depart="196" departPos="random_free"/>
    <vehicle id="r5_189" type="mixed" route="r5" depart="197" departPos="random_free"/>
    <vehicle id="r5_190" type="mixed" route="r5" depart="199" departPos="random_free"/>
    <vehicle id="r3_191" type="mixed" route="r3" depart="200" departPos="random_free"/>
    <vehicle id="r3_192" type="mixed" route="r3" depart="201" departPos="random_free"/>
    <vehicle id="r11_193" type="mixed" route="r11" depart="201" departPos="random_free"/>
    <vehicle id="r5_194" type="mixed" route="r5" depart="202" departPos="random_free"/>
    <vehicle id="r10_195" type="mixed" route="r10" depart="202" departPos="random_free"/>
    <vehicle id="r6_196" type="mixed" route="r6" depart="203" departPos="random_free"/>
    <vehicle id="r0_197" type="mixed" route="r0" depart="203" departPos="random_free"/>
    <vehicle id="r11_198" type="mixed" route="r11" depart="204" departPos="random_free"/>
    <vehicle id="r10_199" type="mixed" route="r10" depart="204" departPos="random_free"/>
    <vehicle id="r11_200" type="mixed" route="r11" depart="204" departPos="random_free"/>
    <vehicle id="r11_201" type="mixed" route="r11" depart="205" departPos="random_free"/>
    <vehicle id="r10_202" type="mixed" route="r10" depart="205" departPos="random_free"/>
    <vehicle id="r2_203" type="mixed" route="r2" depart="205" departPos="random_free"/>
    <vehicle id="r6_204" type="mixed" route="r6" depart="206" departPos="random_free"/>
    <vehicle id="r2_205" type="mixed" route="r2" depart="206" departPos="random_free"/>
    <vehicle id="r5_206" type="mixed" route="r5" depart="207" departPos="random_free"/>
    <vehicle id="r0_207" type="mixed" route="r0" depart="209" departPos="random_free"/>
    <vehicle id="r4_208" type="mixed" route="r4" depart="209" departPos="random_free"/>
    <vehicle id="r11_209" type="mixed" route="r11" depart="209" departPos="random_free"/>
    <vehicle id="r3_210" type="mixed" route="r3" depart="209" departPos="random_free"/>
    <vehicle id="r9_211" type="mixed" route="r9" depart="209" departPos="random_free"/>
    <vehicle id="r5_212" type="mixed" route="r5" depart="210" departPos="random_free"/>
    <vehicle id="r5_213" type="mixed" route="r5" depart="210" departPos="random_free"/>
    <vehicle id="r11_214" type="mixed" route="r11" depart="211" departPos="random_free"/>
    <vehicle id="r11_215" type="mixed" route="r11" depart="211" departPos="random_free"/>
    <vehicle id="r6_216" type="mixed" route="r6" depart="213" departPos="random_free"/>
    <vehicle id="r8_217" type="mixed" route="r8" depart="213" departPos="random_free"/>
    <vehicle id="r1_218" type="mixed" route="r1" depart="215" departPos="random_free"/>
    <vehicle id="r3_219" type="mixed" route="r3" depart="215" departPos="random_free"/>
    <vehicle id="r11_220" type="mixed" route="r11" depart="216" departPos="random_free"/>
    <vehicle id="r7_221" type="mixed" route="r7" depart="216" departPos="random_free"/>
    <vehicle id="r6_222" type="mixed" route="r6" depart="216" departPos="random_free"/>
    <vehicle id="r9_223" type="mixed" route="r9" depart="217" departPos="random_free"/>
    <vehicle id="r0_224" type="mixed" route="r0" depart="218" departPos="random_free"/>
    <vehicle id="r7_225" type="mixed" route="r7" depart="218" departPos="random_free"/>
    <vehicle id="r6_226" type="mixed" route="r6" depart="218" departPos="random_free"/>
    <vehicle id="r10_227" type="mixed" route="r10" depart="218" departPos="random_free"/>
    <vehicle id="r1_228" type="mixed" route="r1" depart="218" departPos="random_free"/>
    <vehicle id="r11_229" type="mixed" route="r11" depart="219" departPos="random_free"/>
    <vehicle id="r0_230" type="mixed" route="r0" depart="220" departPos="random_free"/>
    <vehicle id="r2_231" type="mixed" route="r2" depart="220" departPos="random_free"/>
    <vehicle id="r7_232" type="mixed" route="r7" depart="220" departPos="random_free"/>
    <vehicle id="r8_233" type="mixed" route="r8" depart="220" departPos="random_free"/>
    <vehicle id="r3_234" type="mixed" route="r3" depart="220" departPos="random_free"/>
    <vehicle id="r1_235" type="mixed" route="r1" depart="221" departPos="random_free"/>
    <vehicle id="r10_236" type="mixed" route="r10" depart="221" departPos="random_free"/>
    <vehicle id="r3_237" type="mixed" route="r3" depart="223" departPos="random_free"/>
    <vehicle id="r7_238" type="mixed" route="r7" depart="223" departPos="random_free"/>
    <vehicle id="r7_239" type="mixed" route="r7" depart="223" departPos="random_free"/>
    <vehicle id="r5_240" type="mixed" route="r5" depart="223" departPos="random_free"/>
    <vehicle id="r7_241" type="mixed" route="r7" depart="223" departPos="random_free"/>
    <vehicle id="r6_242" type="mixed" route="r6" depart="224" departPos="random_free"/>
    <vehicle id="r11_243" type="mixed" route="r11" depart="224" departPos="random_free"/>
    <vehicle id="r2_244" type="mixed" route="r2" depart="225" departPos="random_free"/>
    <vehicle id="r8_245" type="mixed" route="r8" depart="225" departPos="random_free"/>
    <vehicle id="r3_246" type="mixed" route="r3" depart="226" departPos="random_free"/>
    <vehicle id="r5_247" type="mixed" route="r5" depart="226" departPos="random_free"/>
    <vehicle id="r8_248" type="mixed" route="r8" depart="227" departPos="random_free"/>
    <vehicle id="r3_249" type="mixed" route="r3" depart="227" departPos="random_free"/>
    <vehicle id="r4_250" type="mixed" route="r4" depart="227" departPos="random_free"/>
    <vehicle id="r9_251" type="mixed" route="r9" depart="227" departPos="random_free"/>
    <vehicle id="r0_252" type="mixed" route="r0" depart="227" departPos="random_free"/>
    <vehicle id="r5_253" type="mixed" route="r5" depart="228" departPos="random_free"/>
    <vehicle id="r11_254" type="mixed" route="r11" depart="229" departPos="random_free"/>
    <vehicle id="r11_255" type="mixed" route="r11" depart="231" departPos="random_free"/>
    <vehicle id="r0_256" type="mixed" route="r0" depart="233" departPos="random_free"/>
    <vehicle id="r2_257" type="mixed" route="r2" depart="233" departPos="random_free"/>
    <vehicle id="r3_258" type="mixed" route="r3" depart="233" departPos="random_free"/>
    <vehicle id="r11_259" type="mixed" route="r11" depart="235" departPos="random_free"/>
    <vehicle id="r10_260" type="mixed" route="r10" depart="235" departPos="random_free"/>
    <vehicle id="r10_261" type="mixed" route="r10" depart="237" departPos="random_free"/>
    <vehicle id="r4_262" type="mixed" route="r4" depart="239" departPos="random_free"/>
    <vehicle id="r1_263" type="mixed" route="r1" depart="239" departPos="random_free"/>
    <vehicle id="r9_264" type="mixed" route="r9" depart="240" departPos="random_free"/>
    <vehicle id="r8_265" type="mixed" route="r8" depart="240" departPos="random_free"/>
    <vehicle id="r7_266" type="mixed" route="r7" depart="241" departPos="random_free"/>
    <vehicle id="r11_267" type="mixed" route="r11" depart="242" departPos="random_free"/>
    <vehicle id="r7_268" type="mixed" route="r7" depart="242" departPos="random_free"/>
    <vehicle id="r0_269" type="mixed" route="r0" depart="243" departPos="random_free"/>
    <vehicle id="r9_270" type="mixed" route="r9" depart="244" departPos="random_free"/>
    <vehicle id="r3_271" type="mixed" route="r3" depart="244" departPos="random_free"/>
    <vehicle id="r8_272" type="mixed" route="r8" depart="245" departPos="random_free"/>
    <vehicle id="r11_273" type="mixed" route="r11" depart="246" departPos="random_free"/>
    <vehicle id="r1_274" type="mixed" route="r1" depart="248" departPos="random_free"/>
    <vehicle id="r1_275" type="mixed" route="r1" depart="249" departPos="random_free"/>
    <vehicle id="r1_276" type="mixed" route="r1" depart="249" departPos="random_free"/>
    <vehicle id="r6_277" type="mixed" route="r6" depart="250" departPos="random_free"/>
    <vehicle id="r3_278" type="mixed" route="r3" depart="250" departPos="random_free"/>
    <vehicle id="r7_279" type="mixed" route="r7" depart="250" departPos="random_free"/>
    <vehicle id="r8_280" type="mixed" route="r8" depart="251" departPos="random_free"/>
    <vehicle id="r2_281" type="mixed" route="r2" depart="251" departPos="random_free"/>
    <vehicle id="r7_282" type="mixed" route="r7" depart="251" departPos="random_free"/>
    <vehicle id="r3_283" type="mixed" route="r3" depart="252" departPos="random_free"/>
    <vehicle id="r6_284" type="mixed" route="r6" depart="252" departPos="random_free"/>
    <vehicle id="r10_285" type="mixed" route="r10" depart="253" departPos="random_free"/>
    <vehicle id="r10_286" type="mixed" route="r10" depart="254" departPos="random_free"/>
    <vehicle id="r0_287" type="mixed" route="r0" depart="254" departPos="random_free"/>
    <vehicle id="r5_288" type="mixed" route="r5" depart="254" departPos="random_free"/>
    <vehicle id="r3_289" type="mixed" route="r3" depart="255" departPos="random_free"/>
    <vehicle id="r0_290" type="mixed" route="r0" depart="255" departPos="random_free"/>
    <vehicle id="r9_291" type="mixed" route="r9" depart="256" departPos="random_free"/>
    <vehicle id="r7_292" type="mixed" route="r7" depart="256" departPos="random_free"/>
    <vehicle id="r3_293" type="mixed" route="r3" depart="256" departPos="random_free"/>
    <vehicle id="r9_294" type="mixed" route="r9" depart="257" departPos="random_free"/>
    <vehicle id="r6_295" type="mixed" route="r6" depart="257" departPos="random_free"/>
    <vehicle id="r5_296" type="mixed" route="r5" depart="257" departPos="random_free"/>
    <vehicle id="r0_297" type="mixed" route="r0" depart="260" departPos="random_free"/>
    <vehicle id="r0_298" type="mixed" route="r0" depart="260" departPos="random_free"/>
    <vehicle id="r10_299" type="mixed" route="r10" depart="260" departPos="random_free"/>
    <vehicle id="r10_300" type="mixed" route="r10" depart="260" departPos="random_free"/>
    <vehicle id="r6_301" type="mixed" route="r6" depart="261" departPos="random_free"/>
    <vehicle id="r9_302" type="mixed" route="r9" depart="261" departPos="random_free"/>
    <vehicle id="r7_303" type="mixed" route="r7" depart="262" departPos="random_free"/>
    <vehicle id="r1_304" type="mixed" route="r1" depart="263" departPos="random_free"/>
    <vehicle id="r1_305" type="mixed" route="r1" depart="263" departPos="random_free"/>
    <vehicle id="r4_306" type="mixed" route="r4" depart="263" departPos="random_free"/>
    <vehicle id="r10_307" type="mixed" route="r10" depart="263" departPos="random_free"/>
    <vehicle id="r9_308" type="mixed" route="r9" depart="263" departPos="random_free"/>
    <vehicle id="r10_309" type="mixed" route="r10" depart="264" departPos="random_free"/>
    <vehicle id="r10_310" type="mixed" route="r10" depart="265" departPos="random_free"/>
    <vehicle id="r2_311" type="mixed" route="r2" depart="265" departPos="random_free"/>
    <vehicle id="r3_312" type="mixed" route="r3" depart="265" departPos="random_free"/>
    <vehicle id="r1_313" type="mixed" route="r1" depart="266" departPos="random_free"/>
    <vehicle id="r9_314" type="mixed" route="r9" depart="266" departPos="random_free"/>
    <vehicle id="r10_315" type="mixed" route="r10" depart="267" departPos="random_free"/>
    <vehicle id="r5_316" type="mixed" route="r5" depart="267" departPos="random_free"/>
    <vehicle id="r7_317" type="mixed" route="r7" depart="267" departPos="random_free"/>
    <vehicle id="r1_318" type="mixed" route="r1" depart="268" departPos="random_free"/>
    <vehicle id="r11_319" type="mixed" route="r11" depart="269" departPos="random_free"/>
    <vehicle id="r10_320" type="mixed" route="r10" depart="269" departPos="random_free"/>
    <vehicle id="r11_321" type="mixed" route="r11" depart="269" departPos="random_free"/>
    <vehicle id="r9_322" type="mixed" route="r9" depart="271" departPos="random_free"/>
    <vehicle id="r10_323" type="mixed" route="r10" depart="273" departPos="random_free"/>
    <vehicle id="r0_324" type="mixed" route="r0" depart="273" departPos="random_free"/>
    <vehicle id="r9_325" type="mixed" route="r9" depart="273" departPos="random_free"/>
    <vehicle id="r4_326" type="mixed" route="r4" depart="273" departPos="random_free"/>
    <vehicle id="r11_327" type="mixed" route="r11" depart="273" departPos="random_free"/>
    <vehicle id="r9_328" type="mixed" route="r9" depart="274" departPos="random_free"/>
    <vehicle id="r10_329" type="mixed" route="r10" depart="274" departPos="random_free"/>
    <vehicle id="r9_330" type="mixed" route="r9" depart="274" departPos="random_free"/>
    <vehicle id="r3_331" type="mixed" route="r3" depart="275" departPos="random_free"/>
    <vehicle id="r9_332" type="mixed" route="r9" depart="277" departPos="random_free"/>